examples/tesp-pcs/files/R5-12.47-4_processed.glm
clock {
     timezone EST+5EDT;
  timestamp '2010-06-01 00:00:00';
  stoptime '2010-06-03 00:00:00';
}
#set profiler=1
module tape;
module powerflow{
     solver_method NR;
      default_maximum_voltage_error 1e-6;
};
#ifdef WANT_VI_DUMP
#endif
module climate;
module generators;
module connection;
module residential {
  implicit_enduses NONE;
};
#include "../../../../support/schedules/appliance_schedules.glm";
#include "../../../../support/schedules/water_and_setpoint_schedule_v5.glm";
#include "../../../../support/schedules/commercial_schedules.glm";
#set minimum_timestep=15;
#set relax_naming_rules=1;
#set warn=0;
object metrics_collector_writer {
  interval 300;
  interim 43200;
  filename ${METRICS_FILE};
  // filename R5-12.47-4_processed_metrics.json;
};
object climate {
  name localWeather;
  // tmyfile "../../../../support/weather/AZ-Tucson_International_Ap.tmy3";
  // agent name weather
  interpolate QUADRATIC;
  latitude 30.0;
  longitude -110.0;
  // altitude 0.0;
  tz_meridian 0.0;
};
// default IEEE 1547-2018 settings for Category B
#define INV_VBASE=240.0
#define INV_V1=0.92
#define INV_V2=0.98
#define INV_V3=1.02
#define INV_V4=1.08
#define INV_Q1=0.44
#define INV_Q2=0.00
#define INV_Q3=0.00
#define INV_Q4=-0.44
#define INV_VIN=200.0
#define INV_IIN=32.5
#define INV_VVLOCKOUT=300.0
#define INV_VW_V1=1.05 // 1.05833
#define INV_VW_V2=1.10
#define INV_VW_P1=1.0
#define INV_VW_P2=0.0
#ifdef WANT_VI_DUMP
object voltdump {
  filename Voltage_Dump_R5-12.47-4_processed.csv;
  mode polar;
}
object currdump {
  filename Current_Dump_R5-12.47-4_processed.csv;
  mode polar;
}
#endif // &&& end of common section for combining TESP cases
// solar inverter mode on this feeder
#define INVERTER_MODE=CONSTANT_PF
object transformer_configuration {
  name XF1_PADMOUNT_BS_50;
  power_rating 50.00;
  powerA_rating 0.0;
  powerB_rating 50.00;
  powerC_rating 0.0;
  install_type PADMOUNT;
  connect_type SINGLE_PHASE_CENTER_TAPPED;
  primary_voltage 7200.0;
  secondary_voltage 120.0;
  resistance 0.00650;
  resistance1 0.01300;
  resistance2 0.01300;
  reactance 0.01416;
  reactance1 0.00708;
  reactance2 0.00708;
  shunt_resistance 222.22;
  shunt_reactance 64.94;
}
object transformer_configuration {
  name XF1_PADMOUNT_AS_37p5;
  power_rating 37.50;
  powerA_rating 37.50;
  powerB_rating 0.0;
  powerC_rating 0.0;
  install_type PADMOUNT;
  connect_type SINGLE_PHASE_CENTER_TAPPED;
  primary_voltage 7200.0;
  secondary_voltage 120.0;
  resistance 0.00725;
  resistance1 0.01450;
  resistance2 0.01450;
  reactance 0.01320;
  reactance1 0.00660;
  reactance2 0.00660;
  shunt_resistance 212.77;
  shunt_reactance 57.47;
}
object transformer_configuration {
  name XF1_PADMOUNT_AS_50;
  power_rating 50.00;
  powerA_rating 50.00;
  powerB_rating 0.0;
  powerC_rating 0.0;
  install_type PADMOUNT;
  connect_type SINGLE_PHASE_CENTER_TAPPED;
  primary_voltage 7200.0;
  secondary_voltage 120.0;
  resistance 0.00650;
  resistance1 0.01300;
  resistance2 0.01300;
  reactance 0.01416;
  reactance1 0.00708;
  reactance2 0.00708;
  shunt_resistance 222.22;
  shunt_reactance 64.94;
}
object transformer_configuration {
  name XF1_PADMOUNT_CS_50;
  power_rating 50.00;
  powerA_rating 0.0;
  powerB_rating 0.0;
  powerC_rating 50.00;
  install_type PADMOUNT;
  connect_type SINGLE_PHASE_CENTER_TAPPED;
  primary_voltage 7200.0;
  secondary_voltage 120.0;
  resistance 0.00650;
  resistance1 0.01300;
  resistance2 0.01300;
  reactance 0.01416;
  reactance1 0.00708;
  reactance2 0.00708;
  shunt_resistance 222.22;
  shunt_reactance 64.94;
}
object transformer_configuration {
  name XF1_PADMOUNT_BS_37p5;
  power_rating 37.50;
  powerA_rating 0.0;
  powerB_rating 37.50;
  powerC_rating 0.0;
  install_type PADMOUNT;
  connect_type SINGLE_PHASE_CENTER_TAPPED;
  primary_voltage 7200.0;
  secondary_voltage 120.0;
  resistance 0.00725;
  resistance1 0.01450;
  resistance2 0.01450;
  reactance 0.01320;
  reactance1 0.00660;
  reactance2 0.00660;
  shunt_resistance 212.77;
  shunt_reactance 57.47;
}
object transformer_configuration {
  name XF1_PADMOUNT_BS_15;
  power_rating 15.00;
  powerA_rating 0.0;
  powerB_rating 15.00;
  powerC_rating 0.0;
  install_type PADMOUNT;
  connect_type SINGLE_PHASE_CENTER_TAPPED;
  primary_voltage 7200.0;
  secondary_voltage 120.0;
  resistance 0.00850;
  resistance1 0.01700;
  resistance2 0.01700;
  reactance 0.01176;
  reactance1 0.00588;
  reactance2 0.00588;
  shunt_resistance 166.67;
  shunt_reactance 39.53;
}
object transformer_configuration {
  name XF1_PADMOUNT_BS_25;
  power_rating 25.00;
  powerA_rating 0.0;
  powerB_rating 25.00;
  powerC_rating 0.0;
  install_type PADMOUNT;
  connect_type SINGLE_PHASE_CENTER_TAPPED;
  primary_voltage 7200.0;
  secondary_voltage 120.0;
  resistance 0.00800;
  resistance1 0.01600;
  resistance2 0.01600;
  reactance 0.01208;
  reactance1 0.00604;
  reactance2 0.00604;
  shunt_resistance 192.31;
  shunt_reactance 51.81;
}
object transformer_configuration {
  name XF1_PADMOUNT_BS_75;
  power_rating 75.00;
  powerA_rating 0.0;
  powerB_rating 75.00;
  powerC_rating 0.0;
  install_type PADMOUNT;
  connect_type SINGLE_PHASE_CENTER_TAPPED;
  primary_voltage 7200.0;
  secondary_voltage 120.0;
  resistance 0.00625;
  resistance1 0.01250;
  resistance2 0.01250;
  reactance 0.01352;
  reactance1 0.00676;
  reactance2 0.00676;
  shunt_resistance 238.10;
  shunt_reactance 67.11;
}
object transformer_configuration {
  name XF1_PADMOUNT_BS_167;
  power_rating 167.00;
  powerA_rating 0.0;
  powerB_rating 167.00;
  powerC_rating 0.0;
  install_type PADMOUNT;
  connect_type SINGLE_PHASE_CENTER_TAPPED;
  primary_voltage 7200.0;
  secondary_voltage 120.0;
  resistance 0.00575;
  resistance1 0.01150;
  resistance2 0.01150;
  reactance 0.02216;
  reactance1 0.01108;
  reactance2 0.01108;
  shunt_resistance 263.16;
  shunt_reactance 60.24;
}
object transformer_configuration {
  name XF1_PADMOUNT_CS_100;
  power_rating 100.00;
  powerA_rating 0.0;
  powerB_rating 0.0;
  powerC_rating 100.00;
  install_type PADMOUNT;
  connect_type SINGLE_PHASE_CENTER_TAPPED;
  primary_voltage 7200.0;
  secondary_voltage 120.0;
  resistance 0.00600;
  resistance1 0.01200;
  resistance2 0.01200;
  reactance 0.01752;
  reactance1 0.00876;
  reactance2 0.00876;
  shunt_resistance 250.00;
  shunt_reactance 68.97;
}
object transformer_configuration {
  name XF1_PADMOUNT_CS_75;
  power_rating 75.00;
  powerA_rating 0.0;
  powerB_rating 0.0;
  powerC_rating 75.00;
  install_type PADMOUNT;
  connect_type SINGLE_PHASE_CENTER_TAPPED;
  primary_voltage 7200.0;
  secondary_voltage 120.0;
  resistance 0.00625;
  resistance1 0.01250;
  resistance2 0.01250;
  reactance 0.01352;
  reactance1 0.00676;
  reactance2 0.00676;
  shunt_resistance 238.10;
  shunt_reactance 67.11;
}
object transformer_configuration {
  name XF1_PADMOUNT_BS_100;
  power_rating 100.00;
  powerA_rating 0.0;
  powerB_rating 100.00;
  powerC_rating 0.0;
  install_type PADMOUNT;
  connect_type SINGLE_PHASE_CENTER_TAPPED;
  primary_voltage 7200.0;
  secondary_voltage 120.0;
  resistance 0.00600;
  resistance1 0.01200;
  resistance2 0.01200;
  reactance 0.01752;
  reactance1 0.00876;
  reactance2 0.00876;
  shunt_resistance 250.00;
  shunt_reactance 68.97;
}
object transformer_configuration {
  name XF1_POLETOP_AS_10;
  power_rating 10.00;
  powerA_rating 10.00;
  powerB_rating 0.0;
  powerC_rating 0.0;
  install_type POLETOP;
  connect_type SINGLE_PHASE_CENTER_TAPPED;
  primary_voltage 7200.0;
  secondary_voltage 120.0;
  resistance 0.00950;
  resistance1 0.01900;
  resistance2 0.01900;
  reactance 0.01040;
  reactance1 0.00520;
  reactance2 0.00520;
  shunt_resistance 147.06;
  shunt_reactance 34.25;
}
object transformer_configuration {
  name XF1_POLETOP_CS_37p5;
  power_rating 37.50;
  powerA_rating 0.0;
  powerB_rating 0.0;
  powerC_rating 37.50;
  install_type POLETOP;
  connect_type SINGLE_PHASE_CENTER_TAPPED;
  primary_voltage 7200.0;
  secondary_voltage 120.0;
  resistance 0.00725;
  resistance1 0.01450;
  resistance2 0.01450;
  reactance 0.01320;
  reactance1 0.00660;
  reactance2 0.00660;
  shunt_resistance 212.77;
  shunt_reactance 57.47;
}
object transformer_configuration {
  name XF1_PADMOUNT_CS_25;
  power_rating 25.00;
  powerA_rating 0.0;
  powerB_rating 0.0;
  powerC_rating 25.00;
  install_type PADMOUNT;
  connect_type SINGLE_PHASE_CENTER_TAPPED;
  primary_voltage 7200.0;
  secondary_voltage 120.0;
  resistance 0.00800;
  resistance1 0.01600;
  resistance2 0.01600;
  reactance 0.01208;
  reactance1 0.00604;
  reactance2 0.00604;
  shunt_resistance 192.31;
  shunt_reactance 51.81;
}
object transformer_configuration {
  name XF1_PADMOUNT_AS_75;
  power_rating 75.00;
  powerA_rating 75.00;
  powerB_rating 0.0;
  powerC_rating 0.0;
  install_type PADMOUNT;
  connect_type SINGLE_PHASE_CENTER_TAPPED;
  primary_voltage 7200.0;
  secondary_voltage 120.0;
  resistance 0.00625;
  resistance1 0.01250;
  resistance2 0.01250;
  reactance 0.01352;
  reactance1 0.00676;
  reactance2 0.00676;
  shunt_resistance 238.10;
  shunt_reactance 67.11;
}
object transformer_configuration {
  name XF1_PADMOUNT_AS_25;
  power_rating 25.00;
  powerA_rating 25.00;
  powerB_rating 0.0;
  powerC_rating 0.0;
  install_type PADMOUNT;
  connect_type SINGLE_PHASE_CENTER_TAPPED;
  primary_voltage 7200.0;
  secondary_voltage 120.0;
  resistance 0.00800;
  resistance1 0.01600;
  resistance2 0.01600;
  reactance 0.01208;
  reactance1 0.00604;
  reactance2 0.00604;
  shunt_resistance 192.31;
  shunt_reactance 51.81;
}
object transformer_configuration {
  name XF1_PADMOUNT_CS_37p5;
  power_rating 37.50;
  powerA_rating 0.0;
  powerB_rating 0.0;
  powerC_rating 37.50;
  install_type PADMOUNT;
  connect_type SINGLE_PHASE_CENTER_TAPPED;
  primary_voltage 7200.0;
  secondary_voltage 120.0;
  resistance 0.00725;
  resistance1 0.01450;
  resistance2 0.01450;
  reactance 0.01320;
  reactance1 0.00660;
  reactance2 0.00660;
  shunt_resistance 212.77;
  shunt_reactance 57.47;
}
object transformer_configuration {
  name XF1_POLETOP_BS_50;
  power_rating 50.00;
  powerA_rating 0.0;
  powerB_rating 50.00;
  powerC_rating 0.0;
  install_type POLETOP;
  connect_type SINGLE_PHASE_CENTER_TAPPED;
  primary_voltage 7200.0;
  secondary_voltage 120.0;
  resistance 0.00650;
  resistance1 0.01300;
  resistance2 0.01300;
  reactance 0.01416;
  reactance1 0.00708;
  reactance2 0.00708;
  shunt_resistance 222.22;
  shunt_reactance 64.94;
}
object transformer_configuration {
  name XF1_POLETOP_CS_50;
  power_rating 50.00;
  powerA_rating 0.0;
  powerB_rating 0.0;
  powerC_rating 50.00;
  install_type POLETOP;
  connect_type SINGLE_PHASE_CENTER_TAPPED;
  primary_voltage 7200.0;
  secondary_voltage 120.0;
  resistance 0.00650;
  resistance1 0.01300;
  resistance2 0.01300;
  reactance 0.01416;
  reactance1 0.00708;
  reactance2 0.00708;
  shunt_resistance 222.22;
  shunt_reactance 64.94;
}
object transformer_configuration {
  name XF1_POLETOP_AS_15;
  power_rating 15.00;
  powerA_rating 15.00;
  powerB_rating 0.0;
  powerC_rating 0.0;
  install_type POLETOP;
  connect_type SINGLE_PHASE_CENTER_TAPPED;
  primary_voltage 7200.0;
  secondary_voltage 120.0;
  resistance 0.00850;
  resistance1 0.01700;
  resistance2 0.01700;
  reactance 0.01176;
  reactance1 0.00588;
  reactance2 0.00588;
  shunt_resistance 166.67;
  shunt_reactance 39.53;
}
object transformer_configuration {
  name XF1_POLETOP_BS_25;
  power_rating 25.00;
  powerA_rating 0.0;
  powerB_rating 25.00;
  powerC_rating 0.0;
  install_type POLETOP;
  connect_type SINGLE_PHASE_CENTER_TAPPED;
  primary_voltage 7200.0;
  secondary_voltage 120.0;
  resistance 0.00800;
  resistance1 0.01600;
  resistance2 0.01600;
  reactance 0.01208;
  reactance1 0.00604;
  reactance2 0.00604;
  shunt_resistance 192.31;
  shunt_reactance 51.81;
}
object transformer_configuration {
  name XF1_PADMOUNT_CS_167;
  power_rating 167.00;
  powerA_rating 0.0;
  powerB_rating 0.0;
  powerC_rating 167.00;
  install_type PADMOUNT;
  connect_type SINGLE_PHASE_CENTER_TAPPED;
  primary_voltage 7200.0;
  secondary_voltage 120.0;
  resistance 0.00575;
  resistance1 0.01150;
  resistance2 0.01150;
  reactance 0.02216;
  reactance1 0.01108;
  reactance2 0.01108;
  shunt_resistance 263.16;
  shunt_reactance 60.24;
}
object transformer_configuration {
  name XF1_PADMOUNT_CS_15;
  power_rating 15.00;
  powerA_rating 0.0;
  powerB_rating 0.0;
  powerC_rating 15.00;
  install_type PADMOUNT;
  connect_type SINGLE_PHASE_CENTER_TAPPED;
  primary_voltage 7200.0;
  secondary_voltage 120.0;
  resistance 0.00850;
  resistance1 0.01700;
  resistance2 0.01700;
  reactance 0.01176;
  reactance1 0.00588;
  reactance2 0.00588;
  shunt_resistance 166.67;
  shunt_reactance 39.53;
}
object transformer_configuration {
  name XF1_PADMOUNT_AS_100;
  power_rating 100.00;
  powerA_rating 100.00;
  powerB_rating 0.0;
  powerC_rating 0.0;
  install_type PADMOUNT;
  connect_type SINGLE_PHASE_CENTER_TAPPED;
  primary_voltage 7200.0;
  secondary_voltage 120.0;
  resistance 0.00600;
  resistance1 0.01200;
  resistance2 0.01200;
  reactance 0.01752;
  reactance1 0.00876;
  reactance2 0.00876;
  shunt_resistance 250.00;
  shunt_reactance 68.97;
}
object transformer_configuration {
  name XF1_PADMOUNT_AS_167;
  power_rating 167.00;
  powerA_rating 167.00;
  powerB_rating 0.0;
  powerC_rating 0.0;
  install_type PADMOUNT;
  connect_type SINGLE_PHASE_CENTER_TAPPED;
  primary_voltage 7200.0;
  secondary_voltage 120.0;
  resistance 0.00575;
  resistance1 0.01150;
  resistance2 0.01150;
  reactance 0.02216;
  reactance1 0.01108;
  reactance2 0.01108;
  shunt_resistance 263.16;
  shunt_reactance 60.24;
}
object transformer_configuration {
  name XF1_PADMOUNT_CS_10;
  power_rating 10.00;
  powerA_rating 0.0;
  powerB_rating 0.0;
  powerC_rating 10.00;
  install_type PADMOUNT;
  connect_type SINGLE_PHASE_CENTER_TAPPED;
  primary_voltage 7200.0;
  secondary_voltage 120.0;
  resistance 0.00950;
  resistance1 0.01900;
  resistance2 0.01900;
  reactance 0.01040;
  reactance1 0.00520;
  reactance2 0.00520;
  shunt_resistance 147.06;
  shunt_reactance 34.25;
}
object transformer_configuration {
  name XF1_POLETOP_AS_50;
  power_rating 50.00;
  powerA_rating 50.00;
  powerB_rating 0.0;
  powerC_rating 0.0;
  install_type POLETOP;
  connect_type SINGLE_PHASE_CENTER_TAPPED;
  primary_voltage 7200.0;
  secondary_voltage 120.0;
  resistance 0.00650;
  resistance1 0.01300;
  resistance2 0.01300;
  reactance 0.01416;
  reactance1 0.00708;
  reactance2 0.00708;
  shunt_resistance 222.22;
  shunt_reactance 64.94;
}
object transformer_configuration {
  name XF1_PADMOUNT_AS_5;
  power_rating 5.00;
  powerA_rating 5.00;
  powerB_rating 0.0;
  powerC_rating 0.0;
  install_type PADMOUNT;
  connect_type SINGLE_PHASE_CENTER_TAPPED;
  primary_voltage 7200.0;
  secondary_voltage 120.0;
  resistance 0.01050;
  resistance1 0.02100;
  resistance2 0.02100;
  reactance 0.01224;
  reactance1 0.00612;
  reactance2 0.00612;
  shunt_resistance 111.11;
  shunt_reactance 29.59;
}
object transformer_configuration {
  name XF1_PADMOUNT_AS_15;
  power_rating 15.00;
  powerA_rating 15.00;
  powerB_rating 0.0;
  powerC_rating 0.0;
  install_type PADMOUNT;
  connect_type SINGLE_PHASE_CENTER_TAPPED;
  primary_voltage 7200.0;
  secondary_voltage 120.0;
  resistance 0.00850;
  resistance1 0.01700;
  resistance2 0.01700;
  reactance 0.01176;
  reactance1 0.00588;
  reactance2 0.00588;
  shunt_resistance 166.67;
  shunt_reactance 39.53;
}
object transformer_configuration {
  name XF1_PADMOUNT_BS_5;
  power_rating 5.00;
  powerA_rating 0.0;
  powerB_rating 5.00;
  powerC_rating 0.0;
  install_type PADMOUNT;
  connect_type SINGLE_PHASE_CENTER_TAPPED;
  primary_voltage 7200.0;
  secondary_voltage 120.0;
  resistance 0.01050;
  resistance1 0.02100;
  resistance2 0.02100;
  reactance 0.01224;
  reactance1 0.00612;
  reactance2 0.00612;
  shunt_resistance 111.11;
  shunt_reactance 29.59;
}
object transformer_configuration {
  name XF1_PADMOUNT_CS_5;
  power_rating 5.00;
  powerA_rating 0.0;
  powerB_rating 0.0;
  powerC_rating 5.00;
  install_type PADMOUNT;
  connect_type SINGLE_PHASE_CENTER_TAPPED;
  primary_voltage 7200.0;
  secondary_voltage 120.0;
  resistance 0.01050;
  resistance1 0.02100;
  resistance2 0.02100;
  reactance 0.01224;
  reactance1 0.00612;
  reactance2 0.00612;
  shunt_resistance 111.11;
  shunt_reactance 29.59;
}
object transformer_configuration {
  name XF1_PADMOUNT_AS_10;
  power_rating 10.00;
  powerA_rating 10.00;
  powerB_rating 0.0;
  powerC_rating 0.0;
  install_type PADMOUNT;
  connect_type SINGLE_PHASE_CENTER_TAPPED;
  primary_voltage 7200.0;
  secondary_voltage 120.0;
  resistance 0.00950;
  resistance1 0.01900;
  resistance2 0.01900;
  reactance 0.01040;
  reactance1 0.00520;
  reactance2 0.00520;
  shunt_resistance 147.06;
  shunt_reactance 34.25;
}
object transformer_configuration {
  name XF3_POLETOP_ABCN_75;
  power_rating 75.00;
  powerA_rating 25.00;
  powerB_rating 25.00;
  powerC_rating 25.00;
  install_type POLETOP;
  connect_type WYE_WYE;
  primary_voltage 12470.0;
  secondary_voltage 208.0;
  resistance 0.01600;
  reactance 0.02420;
  shunt_resistance 158.73;
  shunt_reactance 30.86;
}
object transformer_configuration {
  name XF3_PADMOUNT_ABCN_75;
  power_rating 75.00;
  powerA_rating 25.00;
  powerB_rating 25.00;
  powerC_rating 25.00;
  install_type PADMOUNT;
  connect_type WYE_WYE;
  primary_voltage 12470.0;
  secondary_voltage 208.0;
  resistance 0.01600;
  reactance 0.02420;
  shunt_resistance 158.73;
  shunt_reactance 30.86;
}
object transformer_configuration {
  name XF1_PADMOUNT_CN_50;
  power_rating 50.00;
  powerA_rating 0.0;
  powerB_rating 0.0;
  powerC_rating 50.00;
  install_type PADMOUNT;
  connect_type WYE_WYE;
  primary_voltage 12470.0;
  secondary_voltage 208.0;
  resistance 0.01600;
  reactance 0.02420;
  shunt_resistance 158.73;
  shunt_reactance 30.86;
}
object transformer_configuration {
  name XF3_PADMOUNT_ABCN_300;
  power_rating 300.00;
  powerA_rating 100.00;
  powerB_rating 100.00;
  powerC_rating 100.00;
  install_type PADMOUNT;
  connect_type WYE_WYE;
  primary_voltage 12470.0;
  secondary_voltage 480.0;
  resistance 0.01300;
  reactance 0.04830;
  shunt_resistance 217.39;
  shunt_reactance 44.44;
}
object transformer_configuration {
  name XF3_PADMOUNT_ABCN_500;
  power_rating 500.00;
  powerA_rating 166.67;
  powerB_rating 166.67;
  powerC_rating 166.67;
  install_type PADMOUNT;
  connect_type WYE_WYE;
  primary_voltage 12470.0;
  secondary_voltage 480.0;
  resistance 0.01100;
  reactance 0.04880;
  shunt_resistance 222.22;
  shunt_reactance 44.25;
}
object transformer_configuration {
  name XF1_PADMOUNT_CN_37p5;
  power_rating 37.50;
  powerA_rating 0.0;
  powerB_rating 0.0;
  powerC_rating 37.50;
  install_type PADMOUNT;
  connect_type WYE_WYE;
  primary_voltage 12470.0;
  secondary_voltage 208.0;
  resistance 0.01750;
  reactance 0.02120;
  shunt_resistance 142.86;
  shunt_reactance 25.38;
}
object transformer_configuration {
  name XF3_PADMOUNT_ABCN_750;
  power_rating 750.00;
  powerA_rating 250.00;
  powerB_rating 250.00;
  powerC_rating 250.00;
  install_type PADMOUNT;
  connect_type WYE_WYE;
  primary_voltage 12470.0;
  secondary_voltage 480.0;
  resistance 0.00970;
  reactance 0.05110;
  shunt_resistance 227.27;
  shunt_reactance 52.91;
}
object transformer_configuration {
  name XF3_PADMOUNT_ABCN_30;
  power_rating 30.00;
  powerA_rating 10.00;
  powerB_rating 10.00;
  powerC_rating 10.00;
  install_type PADMOUNT;
  connect_type WYE_WYE;
  primary_voltage 12470.0;
  secondary_voltage 208.0;
  resistance 0.01900;
  reactance 0.01770;
  shunt_resistance 126.58;
  shunt_reactance 22.57;
}
object transformer_configuration {
  name XF3_PADMOUNT_ABCN_225;
  power_rating 225.00;
  powerA_rating 75.00;
  powerB_rating 75.00;
  powerC_rating 75.00;
  install_type PADMOUNT;
  connect_type WYE_WYE;
  primary_voltage 12470.0;
  secondary_voltage 480.0;
  resistance 0.01300;
  reactance 0.03520;
  shunt_resistance 200.00;
  shunt_reactance 40.00;
}
object transformer_configuration {
  name XF3_PADMOUNT_ABCN_45;
  power_rating 45.00;
  powerA_rating 15.00;
  powerB_rating 15.00;
  powerC_rating 15.00;
  install_type PADMOUNT;
  connect_type WYE_WYE;
  primary_voltage 12470.0;
  secondary_voltage 208.0;
  resistance 0.01750;
  reactance 0.02120;
  shunt_resistance 142.86;
  shunt_reactance 25.38;
}
object transformer_configuration {
  name XF3_PADMOUNT_ABCN_112p5;
  power_rating 112.50;
  powerA_rating 37.50;
  powerB_rating 37.50;
  powerC_rating 37.50;
  install_type PADMOUNT;
  connect_type WYE_WYE;
  primary_voltage 12470.0;
  secondary_voltage 480.0;
  resistance 0.01450;
  reactance 0.02850;
  shunt_resistance 169.49;
  shunt_reactance 33.44;
}
object transformer_configuration {
  name XF2_PADMOUNT_BCN_225;
  power_rating 225.00;
  powerA_rating 0.0;
  powerB_rating 112.50;
  powerC_rating 112.50;
  install_type PADMOUNT;
  connect_type WYE_WYE;
  primary_voltage 12470.0;
  secondary_voltage 480.0;
  resistance 0.01300;
  reactance 0.03520;
  shunt_resistance 200.00;
  shunt_reactance 40.00;
}
object transformer_configuration {
  name XF1_PADMOUNT_CN_5;
  power_rating 5.00;
  powerA_rating 0.0;
  powerB_rating 0.0;
  powerC_rating 5.00;
  install_type PADMOUNT;
  connect_type WYE_WYE;
  primary_voltage 12470.0;
  secondary_voltage 208.0;
  resistance 0.01900;
  reactance 0.01770;
  shunt_resistance 126.58;
  shunt_reactance 22.57;
}
object transformer_configuration {
  name XF1_PADMOUNT_CN_75;
  power_rating 75.00;
  powerA_rating 0.0;
  powerB_rating 0.0;
  powerC_rating 75.00;
  install_type PADMOUNT;
  connect_type WYE_WYE;
  primary_voltage 12470.0;
  secondary_voltage 208.0;
  resistance 0.01600;
  reactance 0.02420;
  shunt_resistance 158.73;
  shunt_reactance 30.86;
}
object transformer_configuration {
  name XF3_PADMOUNT_ABCN_150;
  power_rating 150.00;
  powerA_rating 50.00;
  powerB_rating 50.00;
  powerC_rating 50.00;
  install_type PADMOUNT;
  connect_type WYE_WYE;
  primary_voltage 12470.0;
  secondary_voltage 480.0;
  resistance 0.01300;
  reactance 0.03250;
  shunt_resistance 185.19;
  shunt_reactance 36.36;
}
object transformer_configuration {
  name XF3_PADMOUNT_ABCN_2000;
  power_rating 2000.00;
  powerA_rating 666.67;
  powerB_rating 666.67;
  powerC_rating 666.67;
  install_type PADMOUNT;
  connect_type WYE_WYE;
  primary_voltage 12470.0;
  secondary_voltage 480.0;
  resistance 0.00720;
  reactance 0.05700;
  shunt_resistance 277.78;
  shunt_reactance 71.94;
}
object triplex_line_conductor {
  name triplex_4/0_aa;
  resistance 0.48;
  geometric_mean_radius 0.0158;
  rating.summer.continuous 1000.0;
  rating.summer.emergency 1000.0;
  rating.winter.continuous 1000.0;
  rating.winter.emergency 1000.0;
}
object triplex_line_configuration {
  name tpx_config;
  conductor_1 triplex_4/0_aa;
  conductor_2 triplex_4/0_aa;
  conductor_N triplex_4/0_aa;
  insulation_thickness 0.08;
  diameter 0.522;
}
object regulator_configuration {
  name feeder_reg_cfg;
  Control OUTPUT_VOLTAGE;
  band_center 7500.0;
  band_width 60.0;
  connect_type WYE_WYE;
  time_delay 30;
  raise_taps 16;
  lower_taps 16;
  regulation 0.10;
  tap_pos_A 0;
  tap_pos_B 0;
  tap_pos_C 0;
}
object overhead_line_conductor {
  name ID_1112;
  rating.summer.continuous 256.0;
  geometric_mean_radius 0.01200 ft;
  resistance 0.16600;
}
object overhead_line_conductor {
  name ID_1113;
  rating.summer.continuous 197.0;
  geometric_mean_radius 0.00883 ft;
  resistance 1.51970;
}
object overhead_line_conductor {
  name ID_1114;
  rating.summer.continuous 354.0;
  geometric_mean_radius 0.01520 ft;
  resistance 0.10500;
}
object overhead_line_conductor {
  name ID_1115;
  rating.summer.continuous 891.0;
  geometric_mean_radius 0.03550 ft;
  resistance 0.14420;
}
object overhead_line_conductor {
  name ID_1116;
  rating.summer.continuous 149.0;
  geometric_mean_radius 0.00663 ft;
  resistance 1.50000;
}
object overhead_line_conductor {
  name ID_1117;
  rating.summer.continuous 533.0;
  geometric_mean_radius 0.02280 ft;
  resistance 0.25800;
}
object overhead_line_conductor {
  name ID_1118;
  rating.summer.continuous 878.0;
  geometric_mean_radius 0.03280 ft;
  resistance 0.13100;
}
object overhead_line_conductor {
  name ID_1119;
  rating.summer.continuous 180.0;
  geometric_mean_radius 0.00418 ft;
  resistance 1.62570;
}
object line_spacing {
  name ID_142;
  distance_AB 48.0 in;
  distance_BC 48.0 in;
  distance_AC 48.0 in;
  distance_AN 36.0 in;
  distance_BN 36.0 in;
  distance_CN 36.0 in;
}
object line_spacing {
  name ID_143;
  distance_CN 36.0 in;
}
object line_spacing {
  name ID_144;
  distance_BN 36.0 in;
}
object line_spacing {
  name ID_145;
  distance_AN 36.0 in;
}
object line_spacing {
  name ID_146;
  distance_BC 48.0 in;
  distance_BN 36.0 in;
  distance_CN 36.0 in;
}
object line_configuration {
  name ID_116;
  conductor_A ID_2422;
  conductor_B ID_2422;
  conductor_C ID_2422;
  conductor_N ID_2422;
  spacing ID_142;
}
object line_configuration {
  name ID_117;
  conductor_C ID_2423;
  conductor_N ID_2423;
  spacing ID_143;
}
object line_configuration {
  name ID_118;
  conductor_B ID_2423;
  conductor_N ID_2423;
  spacing ID_144;
}
object line_configuration {
  name ID_119;
  conductor_A ID_1112;
  conductor_B ID_1112;
  conductor_C ID_1112;
  conductor_N ID_1112;
  spacing ID_142;
}
object line_configuration {
  name ID_120;
  conductor_A ID_2423;
  conductor_N ID_2423;
  spacing ID_145;
}
object line_configuration {
  name ID_121;
  conductor_A ID_1113;
  conductor_N ID_1113;
  spacing ID_145;
}
object line_configuration {
  name ID_122;
  conductor_A ID_2424;
  conductor_B ID_2424;
  conductor_C ID_2424;
  conductor_N ID_2424;
  spacing ID_142;
}
object line_configuration {
  name ID_123;
  conductor_A ID_2423;
  conductor_B ID_2423;
  conductor_C ID_2423;
  conductor_N ID_2423;
  spacing ID_142;
}
object line_configuration {
  name ID_124;
  conductor_A ID_1114;
  conductor_B ID_1114;
  conductor_C ID_1114;
  conductor_N ID_1114;
  spacing ID_142;
}
object line_configuration {
  name ID_125;
  conductor_A ID_1112;
  conductor_N ID_1112;
  spacing ID_145;
}
object line_configuration {
  name ID_126;
  conductor_A ID_1112;
  conductor_N ID_1112;
  spacing ID_145;
}
object line_configuration {
  name ID_127;
  conductor_A ID_1113;
  conductor_B ID_1113;
  conductor_C ID_1113;
  conductor_N ID_1113;
  spacing ID_142;
}
object line_configuration {
  name ID_128;
  conductor_C ID_1112;
  conductor_N ID_1112;
  spacing ID_143;
}
object line_configuration {
  name ID_129;
  conductor_A ID_1115;
  conductor_B ID_1115;
  conductor_C ID_1115;
  conductor_N ID_1115;
  spacing ID_142;
}
object line_configuration {
  name ID_130;
  conductor_A ID_1116;
  conductor_B ID_1116;
  conductor_C ID_1116;
  conductor_N ID_1116;
  spacing ID_142;
}
object line_configuration {
  name ID_131;
  conductor_A ID_1112;
  conductor_B ID_1112;
  conductor_C ID_1112;
  conductor_N ID_1112;
  spacing ID_142;
}
object line_configuration {
  name ID_132;
  conductor_C ID_1116;
  conductor_N ID_1116;
  spacing ID_143;
}
object line_configuration {
  name ID_133;
  conductor_B ID_1112;
  conductor_C ID_1112;
  conductor_N ID_1112;
  spacing ID_146;
}
object line_configuration {
  name ID_134;
  conductor_A ID_1117;
  conductor_B ID_1117;
  conductor_C ID_1117;
  conductor_N ID_1117;
  spacing ID_142;
}
object line_configuration {
  name ID_135;
  conductor_A ID_1118;
  conductor_B ID_1118;
  conductor_C ID_1118;
  conductor_N ID_1118;
  spacing ID_142;
}
object line_configuration {
  name ID_136;
  conductor_A ID_1115;
  conductor_N ID_1115;
  spacing ID_145;
}
object line_configuration {
  name ID_137;
  conductor_B ID_1115;
  conductor_N ID_1115;
  spacing ID_144;
}
object line_configuration {
  name ID_138;
  conductor_C ID_1115;
  conductor_N ID_1115;
  spacing ID_143;
}
object line_configuration {
  name ID_139;
  conductor_C ID_1119;
  conductor_N ID_1119;
  spacing ID_143;
}
object line_configuration {
  name ID_140;
  conductor_A ID_1112;
  conductor_N ID_1112;
  spacing ID_145;
}
object line_configuration {
  name ID_141;
  conductor_B ID_1112;
  conductor_N ID_1112;
  spacing ID_144;
}
object triplex_line_conductor {
  name triplex_4/0 AA;
  resistance 0.48;
  geometric_mean_radius 0.0158;
  rating.summer.continuous 1000.0;
  rating.summer.emergency 1000.0;
  rating.winter.continuous 1000.0;
  rating.winter.emergency 1000.0;
}
object triplex_line_configuration {
  name ID_1412;
  conductor_1 triplex_4/0 AA;
  conductor_2 triplex_4/0 AA;
  conductor_N triplex_4/0 AA;
  insulation_thickness 0.08;
  diameter 0.522;
}
object underground_line_conductor {
  name ID_2422;
  rating.summer.continuous 564.0;
  outer_diameter 2.291;
  conductor_gmr 0.03592 ft;
  conductor_diameter 1.117;
  conductor_resistance 0.093456;
  neutral_gmr 0.00330 ft;
  neutral_resistance 5.9026;
  neutral_diameter 0.1019;
  neutral_strands 20.0;
  insulation_relative_permitivitty 2.3;
}
object underground_line_conductor {
  name ID_2423;
  rating.summer.continuous 112.0;
  outer_diameter 1.09;
  conductor_gmr 0.0088 ft;
  conductor_diameter 0.292;
  conductor_resistance 1.38336;
  neutral_gmr 0.00208 ft;
  neutral_resistance 14.87;
  neutral_diameter 0.0641;
  neutral_strands 6.0;
  insulation_relative_permitivitty 2.3;
}
object underground_line_conductor {
  name ID_2424;
  rating.summer.continuous 214.0;
  outer_diameter 1.32;
  conductor_gmr 0.0177 ft;
  conductor_diameter 0.528;
  conductor_resistance 0.433488;
  neutral_gmr 0.00208 ft;
  neutral_resistance 14.87;
  neutral_diameter 0.0641;
  neutral_strands 11.0;
  insulation_relative_permitivitty 2.3;
}
object fuse {
  name R5_12_47_4_fuse_1;
// downstream 15.96 kva on AS
  phases AN;
  from R5_12_47_4_node_534;
  to R5_12_47_4_node_533;
  current_limit 40;
  status CLOSED;
  mean_replacement_time 3600;
}
object fuse {
  name R5_12_47_4_fuse_2;
// downstream 29.28 kva on ABC
  phases ABCN;
  from R5_12_47_4_node_228;
  to R5_12_47_4_node_227;
  current_limit 40;
  status CLOSED;
  mean_replacement_time 3600;
}
object fuse {
  name R5_12_47_4_fuse_3;
// downstream 245.19 kva on ABC
  phases ABCN;
  from R5_12_47_4_node_280;
  to R5_12_47_4_node_281;
  current_limit 40;
  status CLOSED;
  mean_replacement_time 3600;
}
object fuse {
  name R5_12_47_4_fuse_4;
  phases ABCN;
  from R5_12_47_4_node_288;
  to R5_12_47_4_node_289;
  current_limit 50000;
  status CLOSED;
  mean_replacement_time 3600;
}
object fuse {
  name R5_12_47_4_fuse_5;
// downstream 167.95 kva on ABC
  phases ABCN;
  from R5_12_47_4_node_258;
  to R5_12_47_4_node_257;
  current_limit 40;
  status CLOSED;
  mean_replacement_time 3600;
}
object fuse {
  name R5_12_47_4_fuse_6;
// downstream 112.00 kva on ABC
  phases ABCN;
  from R5_12_47_4_node_261;
  to R5_12_47_4_node_260;
  current_limit 40;
  status CLOSED;
  mean_replacement_time 3600;
}
object fuse {
  name R5_12_47_4_fuse_7;
// downstream 3170.35 kva on ABCS
  phases ABCN;
  from R5_12_47_4_node_582;
  to R5_12_47_4_node_584;
  current_limit 400;
  status CLOSED;
  mean_replacement_time 3600;
}
object fuse {
  name R5_12_47_4_fuse_8;
// downstream 130.53 kva on AS
  phases AN;
  from R5_12_47_4_node_530;
  to R5_12_47_4_node_534;
  current_limit 65;
  status CLOSED;
  mean_replacement_time 3600;
}
object fuse {
  name R5_12_47_4_fuse_9;
// downstream 145.10 kva on CS
  phases CN;
  from R5_12_47_4_node_346;
  to R5_12_47_4_node_344;
  current_limit 65;
  status CLOSED;
  mean_replacement_time 3600;
}
object fuse {
  name R5_12_47_4_fuse_10;
// downstream 75.83 kva on AS
  phases ABCN;
  from R5_12_47_4_node_374;
  to R5_12_47_4_node_372;
  current_limit 40;
  status CLOSED;
  mean_replacement_time 3600;
}
object fuse {
  name R5_12_47_4_fuse_11;
// downstream 146.35 kva on ABC
  phases ABCN;
  from R5_12_47_4_node_222;
  to R5_12_47_4_node_221;
  current_limit 40;
  status CLOSED;
  mean_replacement_time 3600;
}
object fuse {
  name R5_12_47_4_fuse_12;
// downstream 365.59 kva on ABC
  phases ABCN;
  from R5_12_47_4_node_211;
  to R5_12_47_4_node_210;
  current_limit 65;
  status CLOSED;
  mean_replacement_time 3600;
}
object fuse {
  name R5_12_47_4_fuse_13;
// downstream 59.54 kva on ABC
  phases ABCN;
  from R5_12_47_4_node_176;
  to R5_12_47_4_node_7;
  current_limit 40;
  status CLOSED;
  mean_replacement_time 3600;
}
object fuse {
  name R5_12_47_4_fuse_14;
// downstream 618.56 kva on ABCS
  phases ABCN;
  from R5_12_47_4_node_487;
  to R5_12_47_4_node_471;
  current_limit 100;
  status CLOSED;
  mean_replacement_time 3600;
}
object fuse {
  name R5_12_47_4_fuse_15;
  phases ABCN;
  from R5_12_47_4_node_326;
  to R5_12_47_4_node_324;
  current_limit 50000;
  status CLOSED;
  mean_replacement_time 3600;
}
object fuse {
  name R5_12_47_4_fuse_16;
// downstream 65.15 kva on ABC
  phases ABCN;
  from R5_12_47_4_node_313;
  to R5_12_47_4_node_314;
  current_limit 40;
  status CLOSED;
  mean_replacement_time 3600;
}
object fuse {
  name R5_12_47_4_fuse_17;
// downstream 19.31 kva on ABC
  phases ABCN;
  from R5_12_47_4_node_238;
  to R5_12_47_4_node_239;
  current_limit 40;
  status CLOSED;
  mean_replacement_time 3600;
}
object fuse {
  name R5_12_47_4_fuse_18;
// downstream 1822.40 kva on ABC
  phases ABCN;
  from R5_12_47_4_node_8;
  to R5_12_47_4_node_579;
  current_limit 280;
  status CLOSED;
  mean_replacement_time 3600;
}
object fuse {
  name R5_12_47_4_fuse_19;
  phases CN;
  from R5_12_47_4_node_137;
  to R5_12_47_4_node_133;
  current_limit 50000;
  status CLOSED;
  mean_replacement_time 3600;
}
object fuse {
  name R5_12_47_4_fuse_20;
// downstream 71.36 kva on AS
  phases AN;
  from R5_12_47_4_node_137;
  to R5_12_47_4_node_136;
  current_limit 40;
  status CLOSED;
  mean_replacement_time 3600;
}
object fuse {
  name R5_12_47_4_fuse_21;
// downstream 33.05 kva on BS
  phases BN;
  from R5_12_47_4_node_137;
  to R5_12_47_4_node_135;
  current_limit 40;
  status CLOSED;
  mean_replacement_time 3600;
}
object fuse {
  name R5_12_47_4_fuse_22;
// downstream 77.41 kva on ABC
  phases ABCN;
  from R5_12_47_4_node_251;
  to R5_12_47_4_node_252;
  current_limit 40;
  status CLOSED;
  mean_replacement_time 3600;
}
object fuse {
  name R5_12_47_4_fuse_23;
// downstream 61.14 kva on ABC
  phases ABCN;
  from R5_12_47_4_node_247;
  to R5_12_47_4_node_248;
  current_limit 40;
  status CLOSED;
  mean_replacement_time 3600;
}
object fuse {
  name R5_12_47_4_fuse_24;
// downstream 62.63 kva on AS
  phases AN;
  from R5_12_47_4_node_132;
  to R5_12_47_4_node_129;
  current_limit 40;
  status CLOSED;
  mean_replacement_time 3600;
}
object fuse {
  name R5_12_47_4_fuse_25;
// downstream 26.76 kva on BS
  phases BN;
  from R5_12_47_4_node_132;
  to R5_12_47_4_node_130;
  current_limit 40;
  status CLOSED;
  mean_replacement_time 3600;
}
object fuse {
  name R5_12_47_4_fuse_26;
  phases CN;
  from R5_12_47_4_node_132;
  to R5_12_47_4_node_131;
  current_limit 50000;
  status CLOSED;
  mean_replacement_time 3600;
}
object fuse {
  name R5_12_47_4_fuse_27;
// downstream 62.77 kva on AS
  phases AN;
  from R5_12_47_4_node_114;
  to R5_12_47_4_node_115;
  current_limit 40;
  status CLOSED;
  mean_replacement_time 3600;
}
object fuse {
  name R5_12_47_4_fuse_28;
// downstream 100.28 kva on BS
  phases BN;
  from R5_12_47_4_node_114;
  to R5_12_47_4_node_116;
  current_limit 40;
  status CLOSED;
  mean_replacement_time 3600;
}
object fuse {
  name R5_12_47_4_fuse_29;
  phases CN;
  from R5_12_47_4_node_114;
  to R5_12_47_4_node_118;
  current_limit 50000;
  status CLOSED;
  mean_replacement_time 3600;
}
object fuse {
  name R5_12_47_4_fuse_30;
// downstream 40.52 kva on AS
  phases AN;
  from R5_12_47_4_node_99;
  to R5_12_47_4_node_98;
  current_limit 40;
  status CLOSED;
  mean_replacement_time 3600;
}
object fuse {
  name R5_12_47_4_fuse_31;
  phases BN;
  from R5_12_47_4_node_99;
  to R5_12_47_4_node_97;
  current_limit 50000;
  status CLOSED;
  mean_replacement_time 3600;
}
object fuse {
  name R5_12_47_4_fuse_32;
// downstream 183.62 kva on CS
  phases CN;
  from R5_12_47_4_node_99;
  to R5_12_47_4_node_95;
  current_limit 65;
  status CLOSED;
  mean_replacement_time 3600;
}
object fuse {
  name R5_12_47_4_fuse_33;
  phases ABCN;
  from R5_12_47_4_node_94;
  to R5_12_47_4_node_93;
  current_limit 50000;
  status CLOSED;
  mean_replacement_time 3600;
}
object fuse {
  name R5_12_47_4_fuse_34;
// downstream 182.26 kva on AS
  phases AN;
  from R5_12_47_4_node_58;
  to R5_12_47_4_node_57;
  current_limit 65;
  status CLOSED;
  mean_replacement_time 3600;
}
object fuse {
  name R5_12_47_4_fuse_35;
// downstream 192.03 kva on BS
  phases BN;
  from R5_12_47_4_node_58;
  to R5_12_47_4_node_56;
  current_limit 100;
  status CLOSED;
  mean_replacement_time 3600;
}
object fuse {
  name R5_12_47_4_fuse_36;
// downstream 58.61 kva on CS
  phases CN;
  from R5_12_47_4_node_58;
  to R5_12_47_4_node_54;
  current_limit 40;
  status CLOSED;
  mean_replacement_time 3600;
}
object fuse {
  name R5_12_47_4_fuse_37;
  phases AN;
  from R5_12_47_4_node_53;
  to R5_12_47_4_node_50;
  current_limit 50000;
  status CLOSED;
  mean_replacement_time 3600;
}
object fuse {
  name R5_12_47_4_fuse_38;
  phases BN;
  from R5_12_47_4_node_53;
  to R5_12_47_4_node_51;
  current_limit 50000;
  status CLOSED;
  mean_replacement_time 3600;
}
object fuse {
  name R5_12_47_4_fuse_39;
  phases CN;
  from R5_12_47_4_node_53;
  to R5_12_47_4_node_52;
  current_limit 50000;
  status CLOSED;
  mean_replacement_time 3600;
}
object fuse {
  name R5_12_47_4_fuse_40;
  phases AN;
  from R5_12_47_4_node_19;
  to R5_12_47_4_node_18;
  current_limit 50000;
  status CLOSED;
  mean_replacement_time 3600;
}
object fuse {
  name R5_12_47_4_fuse_41;
  phases BN;
  from R5_12_47_4_node_19;
  to R5_12_47_4_node_17;
  current_limit 50000;
  status CLOSED;
  mean_replacement_time 3600;
}
object fuse {
  name R5_12_47_4_fuse_42;
// downstream 174.98 kva on CS
  phases CN;
  from R5_12_47_4_node_19;
  to R5_12_47_4_node_15;
  current_limit 65;
  status CLOSED;
  mean_replacement_time 3600;
}
object fuse {
  name R5_12_47_4_fuse_43;
// downstream 357.68 kva on ABCS
  phases ABCN;
  from R5_12_47_4_node_14;
  to R5_12_47_4_node_13;
  current_limit 65;
  status CLOSED;
  mean_replacement_time 3600;
}
object fuse {
  name R5_12_47_4_fuse_44;
// downstream 199.91 kva on ABC
  phases ABCN;
  from R5_12_47_4_node_203;
  to R5_12_47_4_node_202;
  current_limit 40;
  status CLOSED;
  mean_replacement_time 3600;
}
object fuse {
  name R5_12_47_4_fuse_45;
// downstream 36.15 kva on AS
  phases AN;
  from R5_12_47_4_node_621;
  to R5_12_47_4_node_622;
  current_limit 40;
  status CLOSED;
  mean_replacement_time 3600;
}
object fuse {
  name R5_12_47_4_fuse_46;
// downstream 10.97 kva on CS
  phases CN;
  from R5_12_47_4_node_620;
  to R5_12_47_4_node_619;
  current_limit 40;
  status CLOSED;
  mean_replacement_time 3600;
}
object fuse {
  name R5_12_47_4_fuse_47;
  phases CN;
  from R5_12_47_4_node_634;
  to R5_12_47_4_node_636;
  current_limit 50000;
  status CLOSED;
  mean_replacement_time 3600;
}
object fuse {
  name R5_12_47_4_fuse_48;
  phases BN;
  from R5_12_47_4_node_634;
  to R5_12_47_4_node_635;
  current_limit 50000;
  status CLOSED;
  mean_replacement_time 3600;
}
object fuse {
  name R5_12_47_4_fuse_49;
// downstream 14.82 kva on AS
  phases AN;
  from R5_12_47_4_node_634;
  to R5_12_47_4_node_633;
  current_limit 40;
  status CLOSED;
  mean_replacement_time 3600;
}
object fuse {
  name R5_12_47_4_fuse_50;
// downstream 33.54 kva on C
  phases CN;
  from R5_12_47_4_node_578;
  to R5_12_47_4_node_580;
  current_limit 40;
  status CLOSED;
  mean_replacement_time 3600;
}
object fuse {
  name R5_12_47_4_fuse_51;
// downstream 234.79 kva on ABC
  phases ABCN;
  from R5_12_47_4_node_578;
  to R5_12_47_4_node_571;
  current_limit 40;
  status CLOSED;
  mean_replacement_time 3600;
}
object fuse {
  name R5_12_47_4_fuse_52;
// downstream 335.41 kva on ABC
  phases ABCN;
  from R5_12_47_4_node_579;
  to R5_12_47_4_node_570;
  current_limit 40;
  status CLOSED;
  mean_replacement_time 3600;
}
object fuse {
  name R5_12_47_4_fuse_53;
// downstream 452.80 kva on ABC
  phases ABCN;
  from R5_12_47_4_node_562;
  to R5_12_47_4_node_558;
  current_limit 65;
  status CLOSED;
  mean_replacement_time 3600;
}
object fuse {
  name R5_12_47_4_fuse_54;
// downstream 452.80 kva on ABC
  phases ABCN;
  from R5_12_47_4_node_560;
  to R5_12_47_4_node_557;
  current_limit 65;
  status CLOSED;
  mean_replacement_time 3600;
}
object fuse {
  name R5_12_47_4_fuse_55;
  phases ABCN;
  from R5_12_47_4_node_562;
  to R5_12_47_4_node_564;
  current_limit 50000;
  status CLOSED;
  mean_replacement_time 3600;
}
object fuse {
  name R5_12_47_4_fuse_56;
// downstream 22.36 kva on C
  phases CN;
  from R5_12_47_4_node_562;
  to R5_12_47_4_node_563;
  current_limit 40;
  status CLOSED;
  mean_replacement_time 3600;
}
object fuse {
  name R5_12_47_4_fuse_57;
// downstream 95.75 kva on CS
  phases CN;
  from R5_12_47_4_node_593;
  to R5_12_47_4_node_597;
  current_limit 40;
  status CLOSED;
  mean_replacement_time 3600;
}
object fuse {
  name R5_12_47_4_fuse_58;
// downstream 80.79 kva on BS
  phases BN;
  from R5_12_47_4_node_594;
  to R5_12_47_4_node_598;
  current_limit 40;
  status CLOSED;
  mean_replacement_time 3600;
}
object fuse {
  name R5_12_47_4_fuse_59;
// downstream 74.68 kva on AS
  phases AN;
  from R5_12_47_4_node_595;
  to R5_12_47_4_node_601;
  current_limit 40;
  status CLOSED;
  mean_replacement_time 3600;
}
object fuse {
  name R5_12_47_4_fuse_60;
// downstream 687.81 kva on ABCS
  phases ABCN;
  from R5_12_47_4_node_27;
  to R5_12_47_4_node_78;
  current_limit 100;
  status CLOSED;
  mean_replacement_time 3600;
}
object fuse {
  name R5_12_47_4_fuse_61;
// downstream 219.40 kva on AS
  phases AN;
  from R5_12_47_4_node_78;
  to R5_12_47_4_node_77;
  current_limit 100;
  status CLOSED;
  mean_replacement_time 3600;
}
object fuse {
  name R5_12_47_4_fuse_62;
// downstream 104.00 kva on AS
  phases AN;
  from R5_12_47_4_node_68;
  to R5_12_47_4_node_67;
  current_limit 40;
  status CLOSED;
  mean_replacement_time 3600;
}
object fuse {
  name R5_12_47_4_fuse_63;
// downstream 84.99 kva on BS
  phases BN;
  from R5_12_47_4_node_162;
  to R5_12_47_4_node_159;
  current_limit 40;
  status CLOSED;
  mean_replacement_time 3600;
}
object fuse {
  name R5_12_47_4_fuse_64;
  phases CN;
  from R5_12_47_4_node_162;
  to R5_12_47_4_node_161;
  current_limit 50000;
  status CLOSED;
  mean_replacement_time 3600;
}
object fuse {
  name R5_12_47_4_fuse_65;
  phases CN;
  from R5_12_47_4_node_162;
  to R5_12_47_4_node_160;
  current_limit 50000;
  status CLOSED;
  mean_replacement_time 3600;
}
object fuse {
  name R5_12_47_4_fuse_66;
// downstream 89.00 kva on CS
  phases CN;
  from R5_12_47_4_node_72;
  to R5_12_47_4_node_70;
  current_limit 40;
  status CLOSED;
  mean_replacement_time 3600;
}
object fuse {
  name R5_12_47_4_fuse_67;
// downstream 116.59 kva on CS
  phases CN;
  from R5_12_47_4_node_72;
  to R5_12_47_4_node_71;
  current_limit 65;
  status CLOSED;
  mean_replacement_time 3600;
}
object fuse {
  name R5_12_47_4_fuse_68;
// downstream 73.83 kva on BS
  phases BN;
  from R5_12_47_4_node_72;
  to R5_12_47_4_node_69;
  current_limit 40;
  status CLOSED;
  mean_replacement_time 3600;
}
object fuse {
  name R5_12_47_4_fuse_69;
// downstream 77.17 kva on AS
  phases AN;
  from R5_12_47_4_node_121;
  to R5_12_47_4_node_123;
  current_limit 40;
  status CLOSED;
  mean_replacement_time 3600;
}
object fuse {
  name R5_12_47_4_fuse_70;
// downstream 2.61 kva on C
  phases CN;
  from R5_12_47_4_node_211;
  to R5_12_47_4_node_212;
  current_limit 40;
  status CLOSED;
  mean_replacement_time 3600;
}
object fuse {
  name R5_12_47_4_fuse_71;
// downstream 64.32 kva on CS
  phases CN;
  from R5_12_47_4_node_303;
  to R5_12_47_4_node_304;
  current_limit 40;
  status CLOSED;
  mean_replacement_time 3600;
}
object fuse {
  name R5_12_47_4_fuse_72;
// downstream 38.24 kva on CS
  phases CN;
  from R5_12_47_4_node_295;
  to R5_12_47_4_node_296;
  current_limit 40;
  status CLOSED;
  mean_replacement_time 3600;
}
object fuse {
  name R5_12_47_4_fuse_73;
// downstream 53.63 kva on CS
  phases CN;
  from R5_12_47_4_node_360;
  to R5_12_47_4_node_359;
  current_limit 40;
  status CLOSED;
  mean_replacement_time 3600;
}
object fuse {
  name R5_12_47_4_fuse_74;
// downstream 15.87 kva on CS
  phases CN;
  from R5_12_47_4_node_360;
  to R5_12_47_4_node_358;
  current_limit 40;
  status CLOSED;
  mean_replacement_time 3600;
}
object fuse {
  name R5_12_47_4_fuse_75;
// downstream 69.04 kva on BS
  phases BN;
  from R5_12_47_4_node_363;
  to R5_12_47_4_node_361;
  current_limit 40;
  status CLOSED;
  mean_replacement_time 3600;
}
object fuse {
  name R5_12_47_4_fuse_76;
// downstream 16.84 kva on BS
  phases BN;
  from R5_12_47_4_node_364;
  to R5_12_47_4_node_362;
  current_limit 40;
  status CLOSED;
  mean_replacement_time 3600;
}
object fuse {
  name R5_12_47_4_fuse_77;
  phases BN;
  from R5_12_47_4_node_121;
  to R5_12_47_4_node_122;
  current_limit 50000;
  status CLOSED;
  mean_replacement_time 3600;
}
object fuse {
  name R5_12_47_4_fuse_78;
  phases CN;
  from R5_12_47_4_node_121;
  to R5_12_47_4_node_120;
  current_limit 50000;
  status CLOSED;
  mean_replacement_time 3600;
}
object fuse {
  name R5_12_47_4_fuse_79;
// downstream 141.06 kva on ABC
  phases ABCN;
  from R5_12_47_4_node_171;
  to R5_12_47_4_node_172;
  current_limit 40;
  status CLOSED;
  mean_replacement_time 3600;
}
object fuse {
  name R5_12_47_4_fuse_80;
// downstream 121.09 kva on CS
  phases CN;
  from R5_12_47_4_node_179;
  to R5_12_47_4_node_178;
  current_limit 65;
  status CLOSED;
  mean_replacement_time 3600;
}
object fuse {
  name R5_12_47_4_fuse_81;
  phases BN;
  from R5_12_47_4_node_89;
  to R5_12_47_4_node_671;
  current_limit 50000;
  status CLOSED;
  mean_replacement_time 3600;
}
object fuse {
  name R5_12_47_4_fuse_82;
// downstream 19.85 kva on ABC
  phases ABCN;
  from R5_12_47_4_node_196;
  to R5_12_47_4_node_195;
  current_limit 40;
  status CLOSED;
  mean_replacement_time 3600;
}
object fuse {
  name R5_12_47_4_fuse_83;
// downstream 80.34 kva on AS
  phases AN;
  from R5_12_47_4_node_509;
  to R5_12_47_4_node_507;
  current_limit 40;
  status CLOSED;
  mean_replacement_time 3600;
}
object fuse {
  name R5_12_47_4_fuse_84;
// downstream 36.19 kva on BS
  phases BN;
  from R5_12_47_4_node_509;
  to R5_12_47_4_node_505;
  current_limit 40;
  status CLOSED;
  mean_replacement_time 3600;
}
object fuse {
  name R5_12_47_4_fuse_85;
// downstream 218.64 kva on CS
  phases CN;
  from R5_12_47_4_node_501;
  to R5_12_47_4_node_500;
  current_limit 100;
  status CLOSED;
  mean_replacement_time 3600;
}
object fuse {
  name R5_12_47_4_fuse_86;
// downstream 34.20 kva on CS
  phases CN;
  from R5_12_47_4_node_509;
  to R5_12_47_4_node_508;
  current_limit 40;
  status CLOSED;
  mean_replacement_time 3600;
}
object fuse {
  name R5_12_47_4_fuse_87;
// downstream 122.08 kva on CS
  phases CN;
  from R5_12_47_4_node_514;
  to R5_12_47_4_node_513;
  current_limit 65;
  status CLOSED;
  mean_replacement_time 3600;
}
object fuse {
  name R5_12_47_4_fuse_88;
// downstream 128.84 kva on BS
  phases BN;
  from R5_12_47_4_node_514;
  to R5_12_47_4_node_511;
  current_limit 65;
  status CLOSED;
  mean_replacement_time 3600;
}
object fuse {
  name R5_12_47_4_fuse_89;
// downstream 81.03 kva on AS
  phases AN;
  from R5_12_47_4_node_514;
  to R5_12_47_4_node_512;
  current_limit 40;
  status CLOSED;
  mean_replacement_time 3600;
}
object fuse {
  name R5_12_47_4_fuse_90;
// downstream 139.98 kva on AS
  phases AN;
  from R5_12_47_4_node_455;
  to R5_12_47_4_node_454;
  current_limit 65;
  status CLOSED;
  mean_replacement_time 3600;
}
object fuse {
  name R5_12_47_4_fuse_91;
// downstream 94.73 kva on AS
  phases AN;
  from R5_12_47_4_node_457;
  to R5_12_47_4_node_458;
  current_limit 40;
  status CLOSED;
  mean_replacement_time 3600;
}
object fuse {
  name R5_12_47_4_fuse_92;
  phases BN;
  from R5_12_47_4_node_455;
  to R5_12_47_4_node_672;
  current_limit 50000;
  status CLOSED;
  mean_replacement_time 3600;
}
object fuse {
  name R5_12_47_4_fuse_93;
// downstream 119.75 kva on CS
  phases CN;
  from R5_12_47_4_node_420;
  to R5_12_47_4_node_419;
  current_limit 65;
  status CLOSED;
  mean_replacement_time 3600;
}
object fuse {
  name R5_12_47_4_fuse_94;
// downstream 61.93 kva on CS
  phases CN;
  from R5_12_47_4_node_420;
  to R5_12_47_4_node_417;
  current_limit 40;
  status CLOSED;
  mean_replacement_time 3600;
}
object fuse {
  name R5_12_47_4_fuse_95;
// downstream 94.64 kva on BS
  phases BN;
  from R5_12_47_4_node_413;
  to R5_12_47_4_node_412;
  current_limit 40;
  status CLOSED;
  mean_replacement_time 3600;
}
object fuse {
  name R5_12_47_4_fuse_96;
// downstream 104.92 kva on BS
  phases BN;
  from R5_12_47_4_node_413;
  to R5_12_47_4_node_414;
  current_limit 40;
  status CLOSED;
  mean_replacement_time 3600;
}
object fuse {
  name R5_12_47_4_fuse_97;
  phases AN;
  from R5_12_47_4_node_245;
  to R5_12_47_4_node_243;
  current_limit 50000;
  status CLOSED;
  mean_replacement_time 3600;
}
object fuse {
  name R5_12_47_4_fuse_98;
// downstream 51.94 kva on AS
  phases AN;
  from R5_12_47_4_node_264;
  to R5_12_47_4_node_265;
  current_limit 40;
  status CLOSED;
  mean_replacement_time 3600;
}
object fuse {
  name R5_12_47_4_fuse_99;
  phases CN;
  from R5_12_47_4_node_450;
  to R5_12_47_4_node_452;
  current_limit 50000;
  status CLOSED;
  mean_replacement_time 3600;
}
object fuse {
  name R5_12_47_4_fuse_100;
// downstream 94.80 kva on BS
  phases BN;
  from R5_12_47_4_node_427;
  to R5_12_47_4_node_426;
  current_limit 40;
  status CLOSED;
  mean_replacement_time 3600;
}
object fuse {
  name R5_12_47_4_fuse_101;
// downstream 137.93 kva on BS
  phases BN;
  from R5_12_47_4_node_427;
  to R5_12_47_4_node_423;
  current_limit 65;
  status CLOSED;
  mean_replacement_time 3600;
}
object fuse {
  name R5_12_47_4_fuse_102;
// downstream 99.11 kva on BS
  phases BN;
  from R5_12_47_4_node_418;
  to R5_12_47_4_node_416;
  current_limit 40;
  status CLOSED;
  mean_replacement_time 3600;
}
object fuse {
  name R5_12_47_4_fuse_103;
// downstream 91.79 kva on AS
  phases AN;
  from R5_12_47_4_node_418;
  to R5_12_47_4_node_415;
  current_limit 40;
  status CLOSED;
  mean_replacement_time 3600;
}
object fuse {
  name R5_12_47_4_fuse_104;
// downstream 89.95 kva on AS
  phases AN;
  from R5_12_47_4_node_401;
  to R5_12_47_4_node_399;
  current_limit 40;
  status CLOSED;
  mean_replacement_time 3600;
}
object fuse {
  name R5_12_47_4_fuse_105;
// downstream 109.71 kva on BS
  phases BN;
  from R5_12_47_4_node_398;
  to R5_12_47_4_node_393;
  current_limit 40;
  status CLOSED;
  mean_replacement_time 3600;
}
object fuse {
  name R5_12_47_4_fuse_106;
// downstream 70.68 kva on BS
  phases BN;
  from R5_12_47_4_node_490;
  to R5_12_47_4_node_492;
  current_limit 40;
  status CLOSED;
  mean_replacement_time 3600;
}
object fuse {
  name R5_12_47_4_fuse_107;
// downstream 112.47 kva on BS
  phases BN;
  from R5_12_47_4_node_480;
  to R5_12_47_4_node_477;
  current_limit 40;
  status CLOSED;
  mean_replacement_time 3600;
}
object fuse {
  name R5_12_47_4_fuse_108;
// downstream 87.26 kva on CS
  phases CN;
  from R5_12_47_4_node_587;
  to R5_12_47_4_node_590;
  current_limit 40;
  status CLOSED;
  mean_replacement_time 3600;
}
object fuse {
  name R5_12_47_4_fuse_109;
// downstream 84.97 kva on AS
  phases AN;
  from R5_12_47_4_node_588;
  to R5_12_47_4_node_591;
  current_limit 40;
  status CLOSED;
  mean_replacement_time 3600;
}
object fuse {
  name R5_12_47_4_fuse_110;
// downstream 692.97 kva on ABC
  phases ABCN;
  from R5_12_47_4_node_220;
  to R5_12_47_4_node_217;
  current_limit 100;
  status CLOSED;
  mean_replacement_time 3600;
}
object switch {
  name R5_12_47_4_switch_1;
// downstream 245.19 kva on ABC
  phases ABCN;
  from R5_12_47_4_node_279;
  to R5_12_47_4_node_280;
  status CLOSED;
}
object switch {
  name R5_12_47_4_switch_2;
  phases ABCN;
  from R5_12_47_4_node_288;
  to R5_12_47_4_node_286;
  status CLOSED;
}
object switch {
  name R5_12_47_4_switch_3;
// downstream 525.14 kva on ABC
  phases ABCN;
  from R5_12_47_4_node_259;
  to R5_12_47_4_node_258;
  status CLOSED;
}
object switch {
  name R5_12_47_4_switch_4;
// downstream 245.19 kva on ABC
  phases ABCN;
  from R5_12_47_4_node_261;
  to R5_12_47_4_node_262;
  status CLOSED;
}
object switch {
  name R5_12_47_4_switch_5;
// downstream 2.61 kva on C
  phases CN;
  from R5_12_47_4_node_213;
  to R5_12_47_4_node_214;
  status CLOSED;
}
object switch {
  name R5_12_47_4_switch_6;
// downstream 6488.07 kva on ABCS
  phases ABCN;
  from R5_12_47_4_node_326;
  to R5_12_47_4_node_327;
  status CLOSED;
}
object switch {
  name R5_12_47_4_switch_7;
// downstream 6488.07 kva on ABCS
  phases ABCN;
  from R5_12_47_4_node_323;
  to R5_12_47_4_node_321;
  status CLOSED;
}
object switch {
  name R5_12_47_4_switch_8;
  phases ABCN;
  from R5_12_47_4_node_321;
  to R5_12_47_4_node_320;
  status CLOSED;
}
object switch {
  name R5_12_47_4_switch_9;
// downstream 152.58 kva on ABC
  phases ABCN;
  from R5_12_47_4_node_9;
  to R5_12_47_4_node_205;
  status CLOSED;
}
object switch {
  name R5_12_47_4_switch_10;
// downstream 8497.56 kva on ABCS
  phases ABCN;
  from R5_12_47_4_node_138;
  to R5_12_47_4_node_137;
  status CLOSED;
}
object switch {
  name R5_12_47_4_switch_11;
// downstream 8303.76 kva on ABCS
  phases ABCN;
  from R5_12_47_4_node_132;
  to R5_12_47_4_node_134;
  status CLOSED;
}
object switch {
  name R5_12_47_4_switch_12;
// downstream 138.54 kva on ABC
  phases ABCN;
  from R5_12_47_4_node_250;
  to R5_12_47_4_node_251;
  status CLOSED;
}
object switch {
  name R5_12_47_4_switch_13;
  phases ABCN;
  from R5_12_47_4_node_247;
  to R5_12_47_4_node_246;
  status CLOSED;
}
object switch {
  name R5_12_47_4_switch_14;
// downstream 8497.56 kva on ABCS
  phases ABCN;
  from R5_12_47_4_node_119;
  to R5_12_47_4_node_117;
  status CLOSED;
}
object switch {
  name R5_12_47_4_switch_15;
// downstream 8737.80 kva on ABCS
  phases ABCN;
  from R5_12_47_4_node_113;
  to R5_12_47_4_node_5;
  status CLOSED;
}
object switch {
  name R5_12_47_4_switch_16;
// downstream 8737.80 kva on ABCS
  phases ABCN;
  from R5_12_47_4_node_99;
  to R5_12_47_4_node_100;
  status CLOSED;
}
object switch {
  name R5_12_47_4_switch_17;
// downstream 8961.94 kva on ABCS
  phases ABCN;
  from R5_12_47_4_node_96;
  to R5_12_47_4_node_94;
  status CLOSED;
}
object switch {
  name R5_12_47_4_switch_18;
// downstream 8961.94 kva on ABCS
  phases ABCN;
  from R5_12_47_4_node_58;
  to R5_12_47_4_node_59;
  status CLOSED;
}
object switch {
  name R5_12_47_4_switch_19;
// downstream 9394.84 kva on ABCS
  phases ABCN;
  from R5_12_47_4_node_55;
  to R5_12_47_4_node_53;
  status CLOSED;
}
object switch {
  name R5_12_47_4_switch_20;
// downstream 10082.64 kva on ABCS
  phases ABCN;
  from R5_12_47_4_node_19;
  to R5_12_47_4_node_20;
  status CLOSED;
}
object switch {
  name R5_12_47_4_switch_21;
// downstream 10615.31 kva on ABCS
  phases ABCN;
  from R5_12_47_4_node_16;
  to R5_12_47_4_node_14;
  status CLOSED;
}
object switch {
  name R5_12_47_4_switch_22;
// downstream 6168.03 kva on ABCS
  phases ABCN;
  from R5_12_47_4_node_364;
  to R5_12_47_4_node_365;
  status CLOSED;
}
object switch {
  name R5_12_47_4_switch_23;
// downstream 8303.76 kva on ABCS
  phases ABCN;
  from R5_12_47_4_node_180;
  to R5_12_47_4_node_179;
  status CLOSED;
}
object switch {
  name R5_12_47_4_switch_24;
// downstream 769.81 kva on ABS
  phases ABCN;
  from R5_12_47_4_node_495;
  to R5_12_47_4_node_494;
  status CLOSED;
}
object switch {
  name R5_12_47_4_switch_25;
// downstream 6488.07 kva on ABCS
  phases ABCN;
  from R5_12_47_4_node_333;
  to R5_12_47_4_node_332;
  status CLOSED;
}
object switch {
  name R5_12_47_4_switch_26;
// downstream 6572.53 kva on ABCS
  phases ABCN;
  from R5_12_47_4_node_244;
  to R5_12_47_4_node_241;
  status CLOSED;
}
object switch {
  name R5_12_47_4_switch_27;
// downstream 3901.11 kva on ABCS
  phases ABCN;
  from R5_12_47_4_node_516;
  to R5_12_47_4_node_517;
  status CLOSED;
}
object switch {
  name R5_12_47_4_switch_28;
// downstream 3901.11 kva on ABCS
  phases ABCN;
  from R5_12_47_4_node_524;
  to R5_12_47_4_node_526;
  status CLOSED;
}
object switch {
  name R5_12_47_4_switch_29;
  phases ABCN;
  from R5_12_47_4_node_521;
  to R5_12_47_4_node_522;
  status CLOSED;
}
object overhead_line {
  name R5_12_47_4_ol_1;
// downstream 3170.35 kva on ABCS
  phases ABCN;
  from R5_12_47_4_node_584;
  to R5_12_47_4_node_585;
  length 87.193;
  configuration ID_119;
}
object overhead_line {
  name R5_12_47_4_ol_2;
// downstream 15.96 kva on AS
  phases AN;
  from R5_12_47_4_node_533;
  to R5_12_47_4_node_532;
  length 75.899;
  configuration ID_121;
}
object overhead_line {
  name R5_12_47_4_ol_3;
// downstream 75.83 kva on AS
  phases ABCN;
  from R5_12_47_4_node_398;
  to R5_12_47_4_node_374;
  length 500.594;
  configuration ID_124;
}
object overhead_line {
  name R5_12_47_4_ol_4;
// downstream 275.49 kva on ABS
  phases ABCN;
  from R5_12_47_4_node_418;
  to R5_12_47_4_node_401;
  length 239.055;
  configuration ID_124;
}
object overhead_line {
  name R5_12_47_4_ol_5;
// downstream 6.55 kva on AS
  phases AN;
  from R5_12_47_4_node_366;
  to R5_12_47_4_node_367;
  length 11.853;
  configuration ID_125;
}
object overhead_line {
  name R5_12_47_4_ol_6;
// downstream 69.28 kva on AS
  phases AN;
  from R5_12_47_4_node_366;
  to R5_12_47_4_node_276;
  length 528.080;
  configuration ID_126;
}
object overhead_line {
  name R5_12_47_4_ol_7;
// downstream 84.99 kva on BS
  phases ABCN;
  from R5_12_47_4_node_73;
  to R5_12_47_4_node_162;
  length 422.500;
  configuration ID_127;
}
object overhead_line {
  name R5_12_47_4_ol_8;
// downstream 75.83 kva on AS
  phases AN;
  from R5_12_47_4_node_368;
  to R5_12_47_4_node_366;
  length 304.703;
  configuration ID_126;
}
object overhead_line {
  name R5_12_47_4_ol_9;
// downstream 6.52 kva on CS
  phases CN;
  from R5_12_47_4_node_582;
  to R5_12_47_4_node_583;
  length 22.717;
  configuration ID_128;
}
object overhead_line {
  name R5_12_47_4_ol_10;
// downstream 663.69 kva on ABC
  phases ABCN;
  from R5_12_47_4_node_228;
  to R5_12_47_4_node_232;
  length 11.989;
  configuration ID_129;
}
object overhead_line {
  name R5_12_47_4_ol_11;
// downstream 692.97 kva on ABC
  phases ABCN;
  from R5_12_47_4_node_229;
  to R5_12_47_4_node_228;
  length 4.497;
  configuration ID_129;
}
object overhead_line {
  name R5_12_47_4_ol_12;
// downstream 525.14 kva on ABC
  phases ABCN;
  from R5_12_47_4_node_232;
  to R5_12_47_4_node_233;
  length 4.497;
  configuration ID_129;
}
object overhead_line {
  name R5_12_47_4_ol_13;
// downstream 138.54 kva on ABC
  phases ABCN;
  from R5_12_47_4_node_232;
  to R5_12_47_4_node_231;
  length 2.514;
  configuration ID_129;
}
object overhead_line {
  name R5_12_47_4_ol_14;
// downstream 245.19 kva on ABC
  phases ABCN;
  from R5_12_47_4_node_271;
  to R5_12_47_4_node_273;
  length 11.987;
  configuration ID_129;
}
object overhead_line {
  name R5_12_47_4_ol_15;
// downstream 245.19 kva on ABC
  phases ABCN;
  from R5_12_47_4_node_270;
  to R5_12_47_4_node_271;
  length 4.502;
  configuration ID_129;
}
object overhead_line {
  name R5_12_47_4_ol_16;
// downstream 245.19 kva on ABC
  phases ABCN;
  from R5_12_47_4_node_273;
  to R5_12_47_4_node_272;
  length 4.502;
  configuration ID_129;
}
object overhead_line {
  name R5_12_47_4_ol_17;
  phases ABCN;
  from R5_12_47_4_node_271;
  to R5_12_47_4_node_658;
  length 2.499;
  configuration ID_129;
}
object overhead_line {
  name R5_12_47_4_ol_18;
  phases ABCN;
  from R5_12_47_4_node_273;
  to R5_12_47_4_node_274;
  length 2.499;
  configuration ID_129;
}
object overhead_line {
  name R5_12_47_4_ol_19;
  phases ABCN;
...